LTspice 26.0.1 for Windows
Circuit: C:\Users\Lenovo\Desktop\pspice project\Draft2.net
Start Time: Mon Jun 22 17:25:48 2026
solver = Normal
Maximum thread count: 12
tnom = 27
temp = 27
method = trap
Direct Newton iteration succeeded in finding operating point.
Total elapsed time: 0.046 seconds.

Files loaded:
C:\Users\Lenovo\Desktop\pspice project\Draft2.net
C:\Users\Lenovo\AppData\Local\LTspice\lib\cmp\standard.bjt

