LTspice 26.0.1 for Windows
Circuit: C:\Users\Lenovo\Desktop\pspice project\powerbooster.net
Start Time: Sun Jun 21 18:09:57 2026
solver = Normal
Maximum thread count: 12
tnom = 27
temp = 27
method = trap
Direct Newton iteration succeeded in finding operating point.
Total elapsed time: 0.367 seconds.

Files loaded:
C:\Users\Lenovo\Desktop\pspice project\powerbooster.net
C:\Users\Lenovo\AppData\Local\LTspice\lib\cmp\standard.dio
C:\Users\Lenovo\AppData\Local\LTspice\lib\cmp\standard.mos

