
**** 06/16/26 20:13:49 ******* PSpice Lite (March 2016) ******* ID# 10813 ****

 ** Profile: "SCHEMATIC1-pvcell11"  [ C:\Users\Lenovo\Desktop\pspice project\solar-audio-amplifier-PSpiceFiles\SCHEMATIC1\pvcell11.si


 ****     CIRCUIT DESCRIPTION


******************************************************************************




** Creating circuit file "pvcell11.cir" 
** WARNING: THIS AUTOMATICALLY GENERATED FILE MAY BE OVERWRITTEN BY SUBSEQUENT SIMULATIONS

*Libraries: 
* Profile Libraries :
* Local Libraries :
* From [PSPICE NETLIST] section of C:\Users\Lenovo\AppData\Roaming\SPB_Data\cdssetup\OrCAD_PSpice\17.2.0\PSpice.ini file:
.lib "nomd.lib" 

*Analysis directives: 
.DC LIN V_V1 0 20 0.5 
.OPTIONS ADVCONV
.PROBE64 V(alias(*)) I(alias(*)) W(alias(*)) D(alias(*)) NOISE(alias(*)) 
.INC "..\SCHEMATIC1.net" 



**** INCLUDING SCHEMATIC1.net ****
* source SOLAR-AUDIO-AMPLIFIER
R_R1         N00163 0  1k TC=0,0 
R_R2         0 N00163  1k TC=0,0 
V_V1         N00163 0 10Vdc
I_I1         0 N00439 DC 1Adc  
D_D1         N00163 N00439 D1N4007 
D_D2         0 N00561 D1N4007 
V_V2         N00561 0 0Vdc

**** RESUMING pvcell11.cir ****
.END

**** 06/16/26 20:13:49 ******* PSpice Lite (March 2016) ******* ID# 10813 ****

 ** Profile: "SCHEMATIC1-pvcell11"  [ C:\Users\Lenovo\Desktop\pspice project\solar-audio-amplifier-PSpiceFiles\SCHEMATIC1\pvcell11.si


 ****     Diode MODEL PARAMETERS


******************************************************************************




               D1N4007         D1N4001         
          IS   14.110000E-09   14.110000E-09 
           N    1.984           1.984        
         IKF   94.81           94.81         
          BV    1.500000E+03   75            
         IBV   10.000000E-06   10.000000E-06 
          RS     .03389          .03389      
          TT    5.700000E-06    5.700000E-06 
         CJO   25.890000E-12   25.890000E-12 
          VJ     .3245           .3245       
           M     .44             .44         



          JOB CONCLUDED

**** 06/16/26 20:13:49 ******* PSpice Lite (March 2016) ******* ID# 10813 ****

 ** Profile: "SCHEMATIC1-pvcell11"  [ C:\Users\Lenovo\Desktop\pspice project\solar-audio-amplifier-PSpiceFiles\SCHEMATIC1\pvcell11.si


 ****     JOB STATISTICS SUMMARY


******************************************************************************



  Total job time (using Solver 1)   =         .03
