
**** 06/16/26 19:58:12 ******* PSpice Lite (March 2016) ******* ID# 10813 ****

 ** Profile: "SCHEMATIC1-pvcell1"  [ C:\Users\Lenovo\Desktop\pspice project\solar-audio-amplifier-PSpiceFiles\SCHEMATIC1\pvcell1.sim 


 ****     CIRCUIT DESCRIPTION


******************************************************************************




** Creating circuit file "pvcell1.cir" 
** WARNING: THIS AUTOMATICALLY GENERATED FILE MAY BE OVERWRITTEN BY SUBSEQUENT SIMULATIONS

*Libraries: 
* Profile Libraries :
* Local Libraries :
* From [PSPICE NETLIST] section of C:\Users\Lenovo\AppData\Roaming\SPB_Data\cdssetup\OrCAD_PSpice\17.2.0\PSpice.ini file:
.lib "nomd.lib" 

*Analysis directives: 
.DC LIN V_V1 0 20 0.5 
.OPTIONS ADVCONV
.PROBE64 V(alias(*)) I(alias(*)) W(alias(*)) D(alias(*)) NOISE(alias(*)) 
.INC "..\SCHEMATIC1.net" 



**** INCLUDING SCHEMATIC1.net ****
* source SOLAR-AUDIO-AMPLIFIER
R_R1         N00163 N00151  1k TC=0,0 
R_R2         N00151 N00163  1k TC=0,0 
V_V1         N00163 N00151 10Vdc
I_I1         N00151 N00163 DC 1Adc  

**** RESUMING pvcell1.cir ****
.END

ERROR(ORPSIM-15142): Node N00163 is floating

ERROR(ORPSIM-15142): Node N00151 is floating
